&HEAD CHID='Job_1', TITLE='Our first FDS simulation' /
&REFERENCE LINK='https://firedynamics.github.io/LectureFireSimulation/content/tools/01_fds_smv/02_fds_tutorial.html'
&REFERENCE LINK='https://github.com/firemodels/fds/blob/master/Validation'
&MESH XB=0,2,0,4,0,2.5, IJK=20,40,25/
&VENT XB=0.5,1.5,4,4,0,2, SURF_ID='OPEN'/
&REAC FUEL = 'PROPANE' /
&OBST XB = 0.5,1.5,1.5,2.5,0,0.5, SURF_ID = 'Fire'/
&SURF ID = 'Fire', HRRPUA = 600/
&DEVC ID = 'Air Temperature', XYZ = 1,2,1.5, QUANTITY = 'TEMPERATURE' /
&SLCF PBY = 2, QUANTITY = 'TEMPERATURE' /
&TIME T_END = 60. /
&DUMP NFRAMES=60 /
&TAIL /